/*--------------------------------*- C++ -*----------------------------------*\
| =========                 |                                                 |
| \\      /  F ield         | OpenFOAM: The Open Source CFD Toolbox           |
|  \\    /   O peration     | Version:  2.2.1                                 |
|   \\  /    A nd           | Web:      www.OpenFOAM.org                      |
|    \\/     M anipulation  |                                                 |
\*---------------------------------------------------------------------------*/
FoamFile {
    version 2.2;
    format ascii;
    class volScalarField;
    object p_ap;
}
// * * * * * * * * * * * * * * * * * * * * * * * * * * * * * * * * * * * * * //

dimensions [0 2 -2 0 0 0 0];

internalField uniform 0;

boundaryField {
    inlet {
        type zeroGradient;
    }
    outlet {
        type fixedValue;
        value uniform 0;
    }
    sideWall {
        type zeroGradient;
    }
    bottomWall {
        type zeroGradient;
    }
    topWall {
        type zeroGradient;
    }
}
