/*--------------------------------*- C++ -*----------------------------------*\
| =========                 |                                                 |
| \\      /  F ield         | OpenFOAM: The Open Source CFD Toolbox           |
|  \\    /   O peration     | Version:  2.2.1                                 |
|   \\  /    A nd           | Web:      www.OpenFOAM.org                      |
|    \\/     M anipulation  |                                                 |
\*---------------------------------------------------------------------------*/
FoamFile {
    version 2.2;
    format ascii;
    class volVectorField;
    object U_p;
}
// * * * * * * * * * * * * * * * * * * * * * * * * * * * * * * * * * * * * * //

dimensions [0 1 -1 0 0 0 0];

internalField uniform (0 0 0);

boundaryField {
    inlet {
        type fixedValue;
        value uniform (0 0 0);
    }
    outlet {
        type zeroGradient;
    }
    sideWall {
        type fixedValue;
        value uniform (0 0 0);
    }
    bottomWall {
        type fixedValue;
        value uniform (0 0 0);
    }
    topWall {
        type fixedValue;
        value uniform (0 0 0);
    }
}
